Info: SIMULATION PARAMETERS:
Info: TIMESTEP               2
Info: NUMBER OF STEPS        0
Info: STEPS PER CYCLE        20
Info: PERIODIC CELL BASIS 1  38.8155 0 0
Info: PERIODIC CELL BASIS 2  0 38.7854 0
Info: PERIODIC CELL BASIS 3  0 0 38.7795
Info: PERIODIC CELL CENTER   0.058 0.0975 -0.161
Info: WRAPPING ALL CLUSTERS AROUND PERIODIC BOUNDARIES ON OUTPUT.
Info: FIRST LDB TIMESTEP     100
Info: LAST LDB TIMESTEP     -1
Info: HOM BACKGROUND SCALING 1
Info: PME BACKGROUND SCALING 1
Info: MIN ATOMS PER PATCH    40
Info: VELOCITY FILE          equil.vel
Info: CENTER OF MASS MOVING INITIALLY? NO
Info: DIELECTRIC             1
Info: EXCLUDE                SCALED ONE-FOUR
Info: 1-4 ELECTROSTATICS SCALED BY 1
Info: MODIFIED 1-4 VDW PARAMETERS WILL BE USED
Info: DCD FILENAME           sample_flexible.dcd
Info: DCD FREQUENCY          500
Info: DCD FIRST STEP         500
Info: DCD FILE WILL CONTAIN UNIT CELL DATA
Info: XST FILENAME           sample_flexible.xst
Info: XST FREQUENCY          100
Info: NO VELOCITY DCD OUTPUT
Info: NO FORCE DCD OUTPUT
Info: OUTPUT FILENAME        sample_flexible
Info: BINARY OUTPUT FILES WILL BE USED
Info: RESTART FILENAME       sample_flexible
Info: RESTART FREQUENCY      100
Info: BINARY RESTART FILES WILL BE USED
Info: SWITCHING ACTIVE
Info: SWITCHING ON           10
Info: SWITCHING OFF          12
Info: PAIRLIST DISTANCE      16
Info: PAIRLIST SHRINK RATE   0.01
Info: PAIRLIST GROW RATE     0.01
Info: PAIRLIST TRIGGER       0.3
Info: PAIRLISTS PER CYCLE    2
Info: PAIRLISTS ENABLED
Info: MARGIN                 8
Info: HYDROGEN GROUP CUTOFF  2.8
Info: PATCH DIMENSION        26.8
Info: ENERGY OUTPUT STEPS    100
Info: CROSSTERM ENERGY INCLUDED IN DIHEDRAL
Info: TIMING OUTPUT STEPS    100
Info: PRESSURE OUTPUT STEPS  100
Info: LANGEVIN DYNAMICS ACTIVE
Info: LANGEVIN TEMPERATURE   300
Info: LANGEVIN USING BBK INTEGRATOR
Info: LANGEVIN DAMPING COEFFICIENT IS 5 INVERSE PS
Info: LANGEVIN DYNAMICS APPLIED TO HYDROGENS
Info: LANGEVIN PISTON PRESSURE CONTROL ACTIVE
Info:        TARGET PRESSURE IS 1.01325 BAR
Info:     OSCILLATION PERIOD IS 200 FS
Info:             DECAY TIME IS 100 FS
Info:     PISTON TEMPERATURE IS 300 K
Info:       PRESSURE CONTROL IS GROUP-BASED
Info:    INITIAL STRAIN RATE IS -0.000105195 -0.000105195 -0.000105195
Info:       CELL FLUCTUATION IS ISOTROPIC
Info: PARTICLE MESH EWALD (PME) ACTIVE
Info: PME TOLERANCE               1e-05
Info: PME EWALD COEFFICIENT       0.226635
Info: PME INTERPOLATION ORDER     4
Info: PME GRID DIMENSIONS         40 40 40
Info: PME MAXIMUM GRID SPACING    1
Info: FULL ELECTROSTATIC EVALUATION FREQUENCY      2
Info: USING VERLET I (r-RESPA) MTS SCHEME.
Info: C1 SPLITTING OF LONG RANGE ELECTROSTATICS
Info: PLACING ATOMS IN PATCHES BY HYDROGEN GROUPS
Info: RIGID BONDS TO HYDROGEN : ALL
Info:         ERROR TOLERANCE : 1e-06
Info:          MAX ITERATIONS : 400
Info: RIGID WATER USING SETTLE ALGORITHM
Info: RANDOM NUMBER SEED     1627865823
Info: USE HYDROGEN BONDS?    NO
Info: COORDINATE PDB         arg_solvated.pdb
Info: STRUCTURE FILE         arg_solvated.psf
Info: PARAMETER file: CHARMM format!
Info: PARAMETERS             /Users/jbardhan/Parameters/par_all27_prot_lipid_more.prm
Info: USING ARITHMETIC MEAN TO COMBINE L-J SIGMA PARAMETERS
Info: BINARY COORDINATES     equil.coor
Info: SUMMARY OF PARAMETERS:
Info: 180 BONDS
Info: 447 ANGLES
Info: 568 DIHEDRAL
Info: 46 IMPROPER
Info: 6 CROSSTERM
Info: 114 VDW
Info: 0 VDW_PAIRS
Info: 0 NBTHOLE_PAIRS
Info: STRUCTURE SUMMARY:
Info: 5907 ATOMS
Info: 3949 BONDS
Info: 2017 ANGLES
Info: 77 DIHEDRALS
Info: 5 IMPROPERS
Info: 0 CROSSTERMS
Info: 0 EXCLUSIONS
Info: 5891 RIGID BONDS
Info: 11830 DEGREES OF FREEDOM
Info: 1973 HYDROGEN GROUPS
Info: 4 ATOMS IN LARGEST HYDROGEN GROUP
Info: 1973 MIGRATION GROUPS
Info: 4 ATOMS IN LARGEST MIGRATION GROUP
Info: TOTAL MASS = 35486.4 amu
Info: TOTAL CHARGE = 1 e
Info: MASS DENSITY = 1.00936 g/cm^3
Info: ATOM DENSITY = 0.101179 atoms/A^3
Info: ADDED 6043 IMPLICIT EXCLUSIONS
Info: NONBONDED TABLE R-SQUARED SPACING: 0.0625
Info: NONBONDED TABLE SIZE: 769 POINTS
Info: REMOVING COM VELOCITY 0.138472 -0.0586298 0.0488818
TCL: Running for 100000 steps
ETITLE: TS BOND ANGLE DIHED IMPRP ELECT VDW BOUNDARY MISC KINETIC TOTAL TEMP POTENTIAL TOTAL3 TEMPAVG PRESSURE GPRESSURE VOLUME PRESSAVG GPRESSAVG
ENERGY: 0 250.1122 98.5553 9.6544 16.8922 -21441.9477 2207.4146 0.0000 0.0000 3574.1518 -15285.1672 304.0735 -18859.3190 -15260.3683 304.0735 1376.9215 1415.0751 58381.5559 1376.9215 1415.0751
ENERGY: 20000 8.7617 18.2935 9.3876 1.1108 -21546.9230 2014.3865 0.0000 0.0000 3485.8691 -16009.1138 296.5628 -19494.9829 -16016.2982 299.6730 -165.4173 -105.3172 58164.1758 42.3043 34.6091
ENERGY: 40000 4.6709 19.9452 7.0006 1.6099 -21577.6673 2129.2625 0.0000 0.0000 3553.0282 -15862.1502 302.2764 -19415.1783 -15863.5202 300.7884 420.1760 590.6332 57941.1887 82.0687 77.3742
ENERGY: 60000 7.3957 24.6985 7.6919 0.6876 -21509.6042 2009.7939 0.0000 0.0000 3502.7509 -15956.5856 297.9991 -19459.3365 -15940.2344 299.1616 -155.7289 -19.1003 58060.5937 51.9524 42.6991
ENERGY: 80000 12.0188 29.1757 5.3191 1.3883 -21391.4021 1985.2321 0.0000 0.0000 3544.8025 -15813.4656 301.5766 -19358.2681 -15806.7888 301.3436 -348.5418 -363.7540 58865.6342 32.5455 30.2463
ENERGY: 100000 4.9387 25.2771 9.7383 0.6772 -21497.2183 2054.9930 0.0000 0.0000 3572.9933 -15828.6005 303.9750 -19401.5939 -15825.5120 300.2886 21.5259 174.7009 58192.9618 -33.4226 -48.9435
